/*--------------------------------*- C++ -*----------------------------------*\
| =========                 |                                                 |
| \\      /  F ield         | OpenFOAM: The Open Source CFD Toolbox           |
|  \\    /   O peration     | Version:                                        |
|   \\  /    A nd           | Website:  www.openfoam.com                      |
|    \\/     M anipulation  |                                                 |
\*---------------------------------------------------------------------------*/
FoamFile
{
    version     2.0;
    format      ascii;
    class       polyBoundaryMesh;
    location    "constant/polyMesh";
    object      boundary;
}
// * * * * * * * * * * * * * * * * * * * * * * * * * * * * * * * * * * * * * //

2
(
    movingWall
    {
        type            wall;
        inGroups        1(wall);
        nFaces          10000;
        startFace       2970000;
    }
    fixedWalls
    {
        type            wall;
        inGroups        1(wall);
        nFaces          50000;
        startFace       2980000;
    }
)

// ************************************************************************* //
