/*--------------------------------*- C++ -*----------------------------------*\
| =========                 |                                                 |
| \\      /  F ield         | OpenFOAM: The Open Source CFD Toolbox           |
|  \\    /   O peration     | Version:                                        |
|   \\  /    A nd           | Website:  www.openfoam.com                      |
|    \\/     M anipulation  |                                                 |
\*---------------------------------------------------------------------------*/
FoamFile
{
    version     2.0;
    format      ascii;
    class       polyBoundaryMesh;
    location    "constant/polyMesh";
    object      boundary;
}
// * * * * * * * * * * * * * * * * * * * * * * * * * * * * * * * * * * * * * //

5
(
    movingWall
    {
        type            wall;
        inGroups        1(wall);
        nFaces          2500;
        startFace       367500;
    }
    fixedWalls
    {
        type            wall;
        inGroups        1(wall);
        nFaces          5000;
        startFace       370000;
    }
    procBoundary4to0
    {
        type            processor;
        inGroups        1(processor);
        nFaces          2500;
        startFace       375000;
        matchTolerance  0.0001;
        transform       unknown;
        myProcNo        4;
        neighbProcNo    0;
    }
    procBoundary4to5
    {
        type            processor;
        inGroups        1(processor);
        nFaces          2500;
        startFace       377500;
        matchTolerance  0.0001;
        transform       unknown;
        myProcNo        4;
        neighbProcNo    5;
    }
    procBoundary4to6
    {
        type            processor;
        inGroups        1(processor);
        nFaces          2500;
        startFace       380000;
        matchTolerance  0.0001;
        transform       unknown;
        myProcNo        4;
        neighbProcNo    6;
    }
)

// ************************************************************************* //
